&jules_frac
file='tile_fractions.dat',
/
&jules_soil_props
const_val=6.63,0.049460,0.004715,0.458150,0.242433,0.136328,1185676.0, 0.226873,0.110000,
const_z=.false.,
nvars=9,
use_file=9*.false.,
var='b','sathh','satcon','sm_sat','sm_crit','sm_wilt','hcap','hcon','albsoil',
/
&jules_agric
/
&jules_co2
/
