&jules_initial
const_val=0.0,276.78,12.1,0.0,50.0,
dump_file=.false.,
file='initial_conditions.dat',
nvars=9,
total_snow=.true.,
use_file=5*.false.,.true.,.true.,.true.,
var='canopy','tstar_tile','cs','gs','rgrain','sthuf','t_soil','snow_tile','lai'
var_name='',
/
