&jules_hydrology
l_pdm=.false.,
l_top=.false.,
/
