&jules_input_grid
grid_is_1d=.false.,
nx=1,
ny=1,
x_dim_name="longitude",
y_dim_name="latitude",
time_dim_name="time",
/
&jules_latlon
latitude=@SITE_LAT@,
longitude=@SITE_LON@,
/
&jules_land_frac
/
&jules_model_grid
force_1d_grid=.false.,
land_only=.false.,
use_subgrid=.false.,
/
&jules_surf_hgt
zero_height=.true.,
/
