&jules_triffid
crop_io=0,0,1,1,0,
g_area_io=0.005,0.007,0.20,0.20,0.05,
g_grow_io=15.00,20.00,20.00,20.00,20.00,
g_root_io=0.25,0.15,0.25,0.25,0.25,
g_wood_io=0.005,0.005,0.20,0.20,0.05,
lai_max_io=9.00,5.00,4.00,4.00,3.00,
lai_min_io=5*1.00,
/
